Version 4
SHEET 1 2056 680
WIRE -256 0 -272 0
WIRE 16 0 -80 0
WIRE 96 0 16 0
WIRE 112 0 96 0
WIRE 448 0 400 0
WIRE 592 0 528 0
WIRE 16 16 16 0
WIRE -96 48 -128 48
WIRE 912 48 672 48
WIRE -128 96 -128 48
WIRE 96 96 96 0
WIRE 112 96 96 96
WIRE 416 96 400 96
WIRE 16 112 16 80
WIRE 672 128 672 48
WIRE -32 192 -160 192
WIRE 112 192 32 192
WIRE 480 192 480 96
WIRE 480 192 400 192
WIRE 496 192 480 192
WIRE 592 192 592 0
WIRE 592 192 576 192
WIRE 672 192 592 192
WIRE 832 192 672 192
WIRE 848 192 832 192
WIRE 848 208 848 192
WIRE -160 288 -160 192
WIRE 32 288 -160 288
WIRE 112 288 96 288
WIRE 592 288 592 192
WIRE 592 288 400 288
WIRE 672 288 672 192
WIRE 912 304 912 48
WIRE 848 352 848 288
WIRE -160 384 -160 288
WIRE -64 384 -160 384
WIRE 112 384 16 384
WIRE 592 384 592 288
WIRE 592 384 400 384
WIRE -272 464 -272 0
WIRE -160 464 -160 384
WIRE 256 464 256 432
WIRE 256 464 -160 464
WIRE 848 480 848 432
WIRE 672 512 672 432
WIRE 256 576 256 464
FLAG 16 112 0
FLAG 832 192 Vout
FLAG 256 576 0
FLAG -272 464 0
FLAG 912 304 0
FLAG 672 512 0
FLAG 848 480 0
FLAG -128 96 0
SYMBOL res 32 368 R90
WINDOW 0 0 56 VBottom 2
WINDOW 3 32 56 VTop 2
SYMATTR InstName R1
SYMATTR Value 110K
SYMBOL cap 96 272 R90
WINDOW 0 0 32 VBottom 2
WINDOW 3 32 32 VTop 2
SYMATTR InstName C1
SYMATTR Value 10n
SYMBOL ind 480 208 R270
WINDOW 0 32 56 VTop 2
WINDOW 3 -4 59 VBottom 2
SYMATTR InstName L1
SYMATTR Value 120µ
SYMATTR SpiceLine Ipk=0.28 Rser=0.7 Rpar=26400 Cpar=0 mfg="Bourns, Inc." pn="SRR4028-121Y"
SYMBOL res 832 192 R0
SYMATTR InstName RL
SYMATTR Value 100
SYMBOL res 544 -16 R90
WINDOW 0 0 56 VBottom 2
WINDOW 3 32 56 VTop 2
SYMATTR InstName R2
SYMATTR Value 100K
SYMBOL LT8618-3.3 256 192 R0
SYMATTR InstName U1
SYMBOL cap 0 16 R0
SYMATTR InstName C5
SYMATTR Value 2.2µ
SYMATTR SpiceLine Rser=5m
SYMBOL cap 32 176 R90
WINDOW 0 0 32 VBottom 2
WINDOW 3 32 32 VTop 2
SYMATTR InstName C2
SYMATTR Value 1µ
SYMATTR SpiceLine V=4 Irms=0 Rser=0 Lser=0 mfg="Murata" pn="GRM155R70G105MA12" type="X7R"
SYMBOL voltage -160 0 R90
WINDOW 0 -32 56 VBottom 2
WINDOW 3 32 56 VTop 2
SYMATTR InstName V1
SYMATTR Value 12
SYMBOL cap 480 80 R90
WINDOW 0 0 32 VBottom 2
WINDOW 3 32 32 VTop 2
SYMATTR InstName C3
SYMATTR Value 0.047µ
SYMATTR SpiceLine V=4 Irms=760m Rser=0.0732706 Lser=0 mfg="KEMET" pn="C0402C473K7PAC" type="X5R"
SYMBOL cap 656 128 R0
SYMATTR InstName C4
SYMATTR Value 22µ
SYMBOL res 656 272 R0
SYMATTR InstName R3
SYMATTR Value 330
SYMBOL diode 656 368 R0
SYMATTR InstName D1
SYMBOL res 832 336 R0
SYMATTR InstName R4
SYMATTR Value 5k
SYMBOL pmos -176 48 R270
SYMATTR InstName M1
TEXT -280 -208 Left 2 !.tran 0 10m 4m
